** MATERIALS
** 
*Material, name=P500Q
*USER MATERIAL,CONSTANTS=232
** 2 ELASTICITY AND 6 BW PLASTICITY PARAMETERS
** E,NU,ceta,eta0,cthetas,cthetat,cthetac,m
 210000,0.3,0.2,0.33333,0.95,1.0,0.9,6.0
** 6 DUCTILE DAMAGE INITIATION LOCUS FUNCTION PARAMETERS, FRACTURE ENERGY DISSIPATION Gf [mJOULES/MM2],
** MAXIMUM VALUE FOR DUCTILE DAMAGE VARIABLE 
** D1,D2,D3,D4,D5,D6,Gf,Dcrit
 0.38,0.44,0.182,1.587,0.38,0.44,300.0,0.85
** 5 PARAMETERS FOR TEMPERATURE SOFTENING CORRECTION FUNCTION,
** 2 PARAMETERS FOR STRAIN RATE HARDENING CORRECTION FUNCTION,
** NUMBER OF INCREMENTS TO UPDATE PLASTIC STRAIN RATE SDV
** beta, alpha, eta2, Cp, T0, p, D, strrInc
 6.039,0.317,0.9,460000000.0,233.7,0.0209,1.074,50000.0
** BRITTLE DAMAGE INITIATION STRESS VALUE
** sigdmg,zero,zero,zero,zero,zero,zero,zero
 1910.0,0.0,0.0,0.0,0.0,0.0,0.0,0.0
** FLOW CURVE
400, 0, 414.9567291, 0.001, 447.5716144, 0.002, 468.4183741, 0.003
484.0621368, 0.004, 496.7085068, 0.005, 507.3861235, 0.006, 516.6632394, 0.007
524.8888395, 0.008, 532.2935025, 0.009, 539.0379817, 0.01, 586.7988168, 0.020111381
617.0391266, 0.030144359, 639.5546575, 0.040084182, 657.8425777, 0.050056286, 673.3783995, 0.060087182
686.7935781, 0.070054894, 709.4582861, 0.090036769, 719.3182374, 0.100111048, 787.9840743, 0.2
793.1218666, 0.21, 798.0585654, 0.22, 802.8106668, 0.23, 807.3926662, 0.24 
811.8173733, 0.25, 816.0961666, 0.26, 820.2392017, 0.27, 824.2555825, 0.28
828.1535033, 0.29, 831.9403675,  0.3, 835.6228876, 0.31, 839.2071695, 0.32
842.6987842, 0.33, 846.1028297, 0.34, 849.4239834, 0.35, 852.6665478, 0.36
855.83449,   0.37, 858.9314761, 0.38, 861.9609015, 0.39, 864.9259168,  0.4
867.8294516, 0.41, 870.6742345, 0.42, 873.4628117, 0.43, 876.1975629, 0.44
878.8807155, 0.45, 881.514358,  0.46, 884.100451,  0.47, 886.6408378, 0.48
889.1372537, 0.49, 891.5913342,  0.5, 894.0046228, 0.51, 896.3785779, 0.52
898.7145786, 0.53, 901.0139311, 0.54, 903.2778733, 0.55, 905.5075797, 0.56
907.7041658, 0.57, 909.8686917, 0.58, 912.0021663, 0.59, 914.1055502,  0.6
916.1797588, 0.61, 918.2256653, 0.62, 920.2441032, 0.63, 922.2358685, 0.64
924.2017224, 0.65, 926.142393,  0.66, 928.058577,  0.67, 929.9509423, 0.68
931.8201286, 0.69, 933.6667497,  0.7, 935.4913947, 0.71, 937.2946291, 0.72
939.0769963, 0.73, 940.8390188, 0.74, 942.5811991, 0.75, 944.3040208, 0.76
946.0079495, 0.77, 947.6934337, 0.78, 949.3609058, 0.79, 951.0107827,  0.8
** ... 5 like lines cut
*Density
 7.85e-09,
*DEPVAR, delete=28
 29,
** 